@<TRIPOS>MOLECULE
*****
 9 8 0 0 0
SMALL
GASTEIGER

@<TRIPOS>ATOM
      1 C          -7.0126    1.3094    0.0313 C.3     1  LIG1        0.0417
      2 N          -5.5553    1.3566    0.0660 N.3     1  LIG1       -0.3183
      3 H          -7.4064    2.0290   -0.7242 H       1  LIG1        0.0586
      4 H          -7.4059    1.5920    1.0320 H       1  LIG1        0.0586
      5 N          -7.4533   -0.0439   -0.2882 N.3     1  LIG1       -0.3183
      6 H          -7.1359   -0.2869   -1.2551 H       1  LIG1        0.1194
      7 H          -8.4982   -0.0698   -0.2768 H       1  LIG1        0.1194
      8 H          -5.2491    2.3271    0.3084 H       1  LIG1        0.1194
      9 H          -5.1838    1.1215   -0.8830 H       1  LIG1        0.1194
@<TRIPOS>BOND
     1     1     2    1
     2     1     3    1
     3     1     4    1
     4     1     5    1
     5     5     6    1
     6     5     7    1
     7     2     8    1
     8     2     9    1
